Version 4
SHEET 1 1560 680
WIRE 544 -224 320 -224
WIRE 832 -224 544 -224
WIRE 1040 -224 832 -224
WIRE 1216 -224 1040 -224
WIRE 1424 -224 1216 -224
WIRE 544 -160 544 -224
WIRE 1216 -160 1216 -224
WIRE 1040 -32 1040 -224
WIRE 1424 -32 1424 -224
WIRE 320 -16 320 -224
WIRE 544 -16 544 -80
WIRE 832 -16 832 -224
WIRE 1216 -16 1216 -80
WIRE 544 96 544 48
WIRE 832 96 832 48
WIRE 832 96 544 96
WIRE 944 96 832 96
WIRE 1040 96 1040 48
WIRE 1040 96 944 96
WIRE -192 128 -320 128
WIRE -32 128 -112 128
WIRE 80 128 -32 128
WIRE 320 128 320 64
WIRE 320 128 208 128
WIRE 832 128 832 96
WIRE -320 192 -320 128
WIRE 80 192 -32 192
WIRE 368 192 208 192
WIRE 544 192 448 192
WIRE 672 192 544 192
WIRE 784 192 672 192
WIRE 544 240 544 192
WIRE -320 368 -320 272
WIRE -32 368 -32 192
WIRE -32 368 -320 368
WIRE 144 368 -32 368
WIRE 544 368 544 320
WIRE 544 368 144 368
WIRE 832 368 832 256
WIRE 832 368 544 368
WIRE 1216 368 1216 48
WIRE 1216 368 832 368
WIRE 1424 368 1424 48
WIRE 1424 368 1216 368
WIRE 144 432 144 368
FLAG 144 432 0
FLAG -32 128 CNTL
FLAG 944 96 OUT
FLAG 672 192 GATE
SYMBOL res -96 112 R90
WINDOW 0 0 56 VBottom 2
WINDOW 3 32 56 VTop 2
SYMATTR InstName R1
SYMATTR Value 432
SYMBOL voltage -320 176 R0
WINDOW 3 -429 53 Left 2
WINDOW 123 0 0 Left 0
WINDOW 39 0 0 Left 0
SYMATTR Value PULSE(0 5 5u 50n 50n 15u 40u 1)
SYMATTR InstName V1
SYMBOL res 304 -32 R0
SYMATTR InstName R2
SYMATTR Value 330
SYMBOL res 528 224 R0
SYMATTR InstName R3
SYMATTR Value 1000
SYMBOL voltage 1424 -48 R0
WINDOW 123 0 0 Left 0
WINDOW 39 0 0 Left 0
SYMATTR InstName V2
SYMATTR Value 24
SYMBOL res 464 176 R90
WINDOW 0 0 56 VBottom 2
WINDOW 3 32 56 VTop 2
SYMATTR InstName R4
SYMATTR Value 10
SYMBOL BAS321 848 48 R180
WINDOW 0 50 40 Left 2
WINDOW 3 49 11 Left 1
SYMATTR InstName D1
SYMBOL res 1024 -48 R0
SYMATTR InstName R5
SYMATTR Value 200
SYMBOL VO615A_4X_BJT_10mA 144 160 R0
WINDOW 3 2 60 Center 1
WINDOW 39 3 84 Center 0
WINDOW 0 2 -65 Center 2
SYMATTR InstName U1
SYMBOL DMT6012LSS 784 144 R0
SYMATTR InstName Q1
SYMBOL res 1200 -176 R0
SYMATTR InstName R6
SYMATTR Value 4000
SYMBOL LG_Q396 1200 -16 R0
SYMATTR InstName D2
SYMBOL LY_Q396 528 -16 R0
SYMATTR InstName D3
SYMBOL res 528 -176 R0
SYMATTR InstName R7
SYMATTR Value 4000
TEXT 960 8 Left 2 ;LOAD
TEXT -368 88 Left 2 ;uC Output
TEXT -624 392 Left 2 !.tran 45u
TEXT 1288 16 Left 2 ;PWR
TEXT 624 16 Left 2 ;OUT
